Version 4
SHEET 1 916 680
WIRE 144 112 80 112
WIRE 240 112 224 112
WIRE 272 112 240 112
WIRE 368 112 352 112
WIRE 480 112 368 112
WIRE 528 112 480 112
WIRE 624 112 608 112
WIRE 656 112 624 112
WIRE 752 112 736 112
WIRE 848 112 752 112
WIRE 80 128 80 112
WIRE 240 128 240 112
WIRE 368 128 368 112
WIRE 624 128 624 112
WIRE 752 128 752 112
WIRE 848 128 848 112
FLAG 80 208 0
FLAG 240 192 0
FLAG 368 192 0
FLAG 624 192 0
FLAG 752 192 0
FLAG 480 192 0
FLAG 848 192 0
SYMBOL res 368 96 R90
WINDOW 0 0 56 VBottom 2
WINDOW 3 32 56 VTop 2
SYMATTR InstName R2
SYMATTR Value 2K
SYMBOL cap 224 128 R0
SYMATTR InstName C1
SYMATTR Value 10µF
SYMBOL cap 352 128 R0
SYMATTR InstName C2
SYMATTR Value 10nF
SYMBOL voltage 80 112 R0
WINDOW 123 24 124 Left 2
WINDOW 39 0 0 Left 2
SYMATTR Value2 AC 3.3 0
SYMATTR InstName V1
SYMATTR Value 0
SYMBOL res 624 96 R90
WINDOW 0 0 56 VBottom 2
WINDOW 3 32 56 VTop 2
SYMATTR InstName R3
SYMATTR Value 20K
SYMBOL res 752 96 R90
WINDOW 0 0 56 VBottom 2
WINDOW 3 32 56 VTop 2
SYMATTR InstName R4
SYMATTR Value 200K
SYMBOL cap 608 128 R0
SYMATTR InstName C3
SYMATTR Value 1nF
SYMBOL cap 736 128 R0
SYMATTR InstName C4
SYMATTR Value .1nF
SYMBOL ind 240 96 R90
WINDOW 0 5 56 VBottom 2
WINDOW 3 32 56 VTop 2
SYMATTR InstName L1
SYMATTR Value 1mH
SYMBOL res 464 96 R0
SYMATTR InstName R1
SYMATTR Value 6250
SYMBOL cap 832 128 R0
SYMATTR InstName C5
SYMATTR Value 12pF
TEXT 46 256 Left 2 !.ac dec 100 100 100000
