Version 4
SHEET 1 1620 10276
WIRE -400 -96 -496 -96
WIRE 368 -80 48 -80
WIRE 496 -80 368 -80
WIRE 656 -80 576 -80
WIRE 832 -80 656 -80
WIRE 928 -80 832 -80
WIRE -496 -64 -496 -96
WIRE 16 -16 -400 -16
WIRE 48 -16 48 -80
WIRE 64 -16 48 -16
WIRE 176 -16 128 -16
WIRE -112 64 -192 64
WIRE -48 64 -112 64
WIRE 16 64 16 -16
WIRE 112 64 16 64
WIRE -192 80 -192 64
WIRE -48 96 -48 64
WIRE 32 96 -48 96
WIRE 112 96 112 64
WIRE 112 96 80 96
WIRE 160 96 112 96
WIRE 1328 96 1264 96
WIRE 32 112 32 96
WIRE 1376 112 1280 112
WIRE 160 128 160 96
WIRE 768 128 832 -16
WIRE 768 128 160 128
WIRE 1328 128 1328 96
WIRE 1280 144 1280 112
WIRE 1296 144 1280 144
WIRE 1376 160 1376 112
WIRE 1376 160 1360 160
WIRE 1552 160 1376 160
WIRE 32 176 32 160
WIRE 32 176 -48 176
WIRE 208 176 80 176
WIRE 304 176 208 176
WIRE 512 176 464 176
WIRE 560 176 512 176
WIRE 656 176 640 176
WIRE 752 176 656 176
WIRE 784 176 752 176
WIRE 896 176 864 176
WIRE 944 176 896 176
WIRE 1056 176 1024 176
WIRE 1168 176 1056 176
WIRE 1296 176 1168 176
WIRE 128 192 128 -16
WIRE 128 192 80 192
WIRE -112 208 -112 64
WIRE 32 208 -112 208
WIRE 80 208 80 192
WIRE 32 224 32 208
WIRE 1376 240 1280 240
WIRE 1264 256 1264 96
WIRE 1328 256 1264 256
WIRE 1328 272 1328 256
WIRE -48 288 -48 176
WIRE 32 288 32 272
WIRE 32 288 -48 288
WIRE 1280 288 1280 240
WIRE 1296 288 1280 288
WIRE 1376 304 1376 240
WIRE 1376 304 1360 304
WIRE 1552 304 1376 304
WIRE 80 320 80 288
WIRE 208 320 80 320
WIRE 352 320 208 320
WIRE 544 320 512 320
WIRE 592 320 544 320
WIRE 688 320 672 320
WIRE 752 320 688 320
WIRE 784 320 752 320
WIRE 896 320 864 320
WIRE 944 320 896 320
WIRE 1056 320 1024 320
WIRE 1168 320 1056 320
WIRE 1296 320 1168 320
WIRE 1552 320 1552 304
WIRE 1264 384 1264 256
FLAG 208 384 0
FLAG 176 64 0
FLAG -192 80 0
FLAG -496 16 0
FLAG 208 240 0
FLAG -400 64 0
FLAG 656 0 0
FLAG 368 0 0
FLAG 928 0 0
FLAG 544 384 0
FLAG 688 384 0
FLAG 896 384 0
FLAG 1056 384 0
FLAG 1168 384 0
FLAG 1168 240 0
FLAG 1056 240 0
FLAG 896 240 0
FLAG 752 256 0
FLAG 656 240 0
FLAG 512 240 0
FLAG 752 400 0
FLAG 1328 336 0
FLAG 1328 192 0
FLAG 1264 464 0
FLAG 1552 240 0
FLAG 1552 400 0
SYMBOL sw 80 80 R0
WINDOW 0 -36 8 Left 2
WINDOW 3 53 64 Left 2
SYMATTR InstName S1
SYMATTR SpiceModel MYSW
SYMBOL sw 80 192 R0
SYMATTR InstName S2
SYMATTR SpiceModel MYSW
SYMBOL voltage -48 192 R180
WINDOW 0 24 96 Left 2
WINDOW 3 24 16 Left 2
WINDOW 123 0 0 Left 2
WINDOW 39 24 -12 Left 2
SYMATTR InstName V1
SYMATTR Value PULSE(0 3.3 0 1.5n 1.5n {0.5/(f+f_if)} {1/(f+f_if)})
SYMATTR SpiceLine Rser=50
SYMBOL cap 192 176 R0
WINDOW 3 26 48 Left 2
SYMATTR InstName C1
SYMATTR Value 0.005µF
SYMBOL cap 192 320 R0
WINDOW 3 32 46 Left 2
SYMATTR InstName C2
SYMATTR Value 0.005µF
SYMBOL voltage -496 -80 R0
WINDOW 123 0 0 Left 2
WINDOW 39 0 0 Left 2
SYMATTR InstName V8
SYMATTR Value 3.3
SYMBOL res -416 -112 R0
SYMATTR InstName R5
SYMATTR Value 39K
SYMBOL cap 128 -32 R90
WINDOW 0 0 32 VBottom 2
WINDOW 3 32 32 VTop 2
SYMATTR InstName C7
SYMATTR Value 1µF
SYMBOL res -416 -32 R0
SYMATTR InstName R10
SYMATTR Value 220K
SYMBOL res 352 -96 R0
SYMATTR InstName R11
SYMATTR Value 150
SYMBOL res 640 -96 R0
SYMATTR InstName R12
SYMATTR Value 150
SYMBOL res 592 -96 R90
WINDOW 0 0 56 VBottom 2
WINDOW 3 32 56 VTop 2
SYMATTR InstName R13
SYMATTR Value 37
SYMBOL cap 848 -16 R180
WINDOW 0 -49 2 Left 2
WINDOW 3 24 8 Left 2
SYMATTR InstName C10
SYMATTR Value 1µF
SYMBOL res 912 -96 R0
SYMATTR InstName R6
SYMATTR Value 56
SYMBOL res 400 160 R90
WINDOW 0 0 56 VBottom 2
WINDOW 3 32 56 VTop 2
SYMATTR InstName R1
SYMATTR Value 25
SYMBOL res 448 304 R90
WINDOW 0 0 56 VBottom 2
WINDOW 3 32 56 VTop 2
SYMATTR InstName R2
SYMATTR Value 25
SYMBOL ind 480 160 R90
WINDOW 0 5 56 VBottom 2
WINDOW 3 32 56 VTop 2
SYMATTR InstName L2
SYMATTR Value 100µH
SYMBOL ind 528 304 R90
WINDOW 0 5 56 VBottom 2
WINDOW 3 32 56 VTop 2
SYMATTR InstName L3
SYMATTR Value 100µH
SYMBOL cap 496 176 R0
SYMATTR InstName C3
SYMATTR Value 0.68µF
SYMBOL cap 528 320 R0
SYMATTR InstName C4
SYMATTR Value 0.68µF
SYMBOL cap 672 320 R0
SYMATTR InstName C5
SYMATTR Value .01µF
SYMBOL cap 640 176 R0
SYMATTR InstName C6
SYMATTR Value 0.01µF
SYMBOL cap 880 176 R0
SYMATTR InstName C8
SYMATTR Value 1nF
SYMBOL cap 880 320 R0
SYMATTR InstName C9
SYMATTR Value 1nF
SYMBOL cap 1040 176 R0
SYMATTR InstName C11
SYMATTR Value 27pF
SYMBOL cap 1152 176 R0
SYMATTR InstName C12
SYMATTR Value 12pF
SYMBOL cap 1040 320 R0
SYMATTR InstName C13
SYMATTR Value 27pF
SYMBOL cap 1152 320 R0
SYMATTR InstName C14
SYMATTR Value 12pF
SYMBOL res 656 160 R90
WINDOW 0 0 56 VBottom 2
WINDOW 3 32 56 VTop 2
SYMATTR InstName R3
SYMATTR Value 10k
SYMBOL res 688 304 R90
WINDOW 0 0 56 VBottom 2
WINDOW 3 32 56 VTop 2
SYMATTR InstName R4
SYMATTR Value 10k
SYMBOL res 736 160 R0
SYMATTR InstName R7
SYMATTR Value 30k
SYMBOL res 880 160 R90
WINDOW 0 0 56 VBottom 2
WINDOW 3 32 56 VTop 2
SYMATTR InstName R9
SYMATTR Value 50k
SYMBOL res 880 304 R90
WINDOW 0 0 56 VBottom 2
WINDOW 3 32 56 VTop 2
SYMATTR InstName R14
SYMATTR Value 50k
SYMBOL res 1040 160 R90
WINDOW 0 0 56 VBottom 2
WINDOW 3 32 56 VTop 2
SYMATTR InstName R15
SYMATTR Value 1000k
SYMBOL res 1040 304 R90
WINDOW 0 0 56 VBottom 2
WINDOW 3 32 56 VTop 2
SYMATTR InstName R16
SYMATTR Value 1000k
SYMBOL res 736 304 R0
SYMATTR InstName R8
SYMATTR Value 30k
SYMBOL voltage 176 -32 R0
WINDOW 0 24 96 Left 2
WINDOW 3 36 127 Left 2
WINDOW 123 0 0 Left 2
WINDOW 39 49 69 Left 2
SYMATTR InstName V2
SYMATTR Value PULSE(0 3.3 0 1.5n 1.5n {0.5/(f)} {1/(f)})
SYMATTR SpiceLine Rser=50
SYMBOL Opamps\\opamp2 1328 240 R0
SYMATTR InstName U3
SYMATTR Value LMX58_LM2904
SYMBOL Opamps\\opamp2 1328 96 R0
SYMATTR InstName U4
SYMATTR Value LMX58_LM2904
SYMBOL voltage 1264 368 R0
SYMATTR InstName V3
SYMBOL res 1536 304 R0
SYMATTR InstName R17
SYMATTR Value 180
SYMBOL res 1536 144 R0
SYMATTR InstName R18
SYMATTR Value 180
TEXT -320 -72 Left 2 !.tran 0 10ms 0 .1ms
TEXT -392 240 Left 2 !;tran 0 2ms 0 .01ms
TEXT 384 -168 Left 2 ;DUT goes here.
TEXT -392 288 Left 2 !.param f=1MEG f_if=500
TEXT -472 344 Left 2 !.model MYSW SW(Ron=1 Roff=1Meg Vt=1.66 Vh=.0)
TEXT 392 24 Left 2 ;6 dB Attenuator DUT
TEXT -1824 -352 Left 2 !* LMX58_LM2904 - Rev. A\n\n* Created by Paul Goedeke; November 16, 2018\n\n* Created with Green-Williams-Lis Op Amp Macro-model Architecture\n\n* Copyright 2018 by Texas Instruments Corporation\n\n******************************************************\n\n* MACRO-MODEL SIMULATED PARAMETERS:\n\n******************************************************\n\n* OPEN-LOOP GAIN AND PHASE VS. FREQUENCY  WITH RL, CL EFFECTS (Aol)\n\n* UNITY GAIN BANDWIDTH (GBW)\n\n* INPUT COMMON-MODE REJECTION RATIO VS. FREQUENCY (CMRR)\n\n* POWER SUPPLY REJECTION RATIO VS. FREQUENCY (PSRR)\n\n* DIFFERENTIAL INPUT IMPEDANCE (Zid)\n\n* COMMON-MODE INPUT IMPEDANCE (Zic)\n\n* OPEN-LOOP OUTPUT IMPEDANCE VS. FREQUENCY (Zo)\n\n* OUTPUT CURRENT THROUGH THE SUPPLY (Iout)\n\n* INPUT VOLTAGE NOISE DENSITY VS. FREQUENCY (en)\n\n* INPUT CURRENT NOISE DENSITY VS. FREQUENCY (in)\n\n* OUTPUT VOLTAGE SWING vs. OUTPUT CURRENT (Vo)\n\n* SHORT-CIRCUIT OUTPUT CURRENT (Isc)\n\n* QUIESCENT CURRENT (Iq)\n\n* SETTLING TIME VS. CAPACITIVE LOAD (ts)\n\n* SLEW RATE (SR)\n\n* SMALL SIGNAL OVERSHOOT VS. CAPACITIVE LOAD\n\n* LARGE SIGNAL RESPONSE\n\n* OVERLOAD RECOVERY TIME (tor)\n\n* INPUT BIAS CURRENT (Ib)\n\n* INPUT OFFSET CURRENT (Ios)\n\n* INPUT OFFSET VOLTAGE (Vos)\n\n* INPUT COMMON-MODE VOLTAGE RANGE (Vcm)\n\n* INPUT OFFSET VOLTAGE VS. INPUT COMMON-MODE VOLTAGE (Vos vs. Vcm)\n\n* INPUT/OUTPUT ESD CELLS (ESDin, ESDout)\n\n******************************************************\n\n.subckt LMX58_LM2904 IN+ IN- VCC VEE OUT\n\n******************************************************\n\n* MODEL DEFINITIONS:\n\n.model BB_SW VSWITCH(Ron=50 Roff=1e12 Von=700e-3 Voff=0)\n\n.model ESD_SW VSWITCH(Ron=50 Roff=1e12 Von=250e-3 Voff=0)\n\n.model OL_SW VSWITCH(Ron=1e-3 Roff=1e9 Von=900e-3 Voff=800e-3)\n\n.model OR_SW VSWITCH(Ron=10e-3 Roff=1e9 Von=1e-3 Voff=0)\n\n.model R_NOISELESS RES(T_ABS=-273.15)\n\n******************************************************\n\n\n\n\nI_OS        ESDn MID -18N\n\nI_B         37 MID -20N\n\nV_GRp       57 MID 180\n\nV_GRn       58 MID -180\n\nV_ISCp      51 MID 40\n\nV_ISCn      52 MID -40\n\nV_ORn       45 VCLP -1.2\n\nV11         56 44 0\n\nV_ORp       43 VCLP 1.2\n\nV12         55 42 0\n\nV4          33 OUT 0\n\nVCM_MIN     79 VEE_B 0\n\nVCM_MAX     80 VCC_B -1.5\n\nI_Q         VCC VEE 350U\n\nV_OS        86 37 1.8M\n\nR61         MID 22 R_NOISELESS 8.001K \n\nC16         22 23 19.89P \n\nR58         23 22 R_NOISELESS 100MEG \n\nGVCCS2      23 MID VEE_B MID  -992.9M\n\nR57         MID 23 R_NOISELESS 1 \n\nXU3         VCC_B VEE_B 24 25 26 27 MID PHASEREV_0\n\nXU1         VIMON MID CRS CRS_DIST_0\n\nC21         28 29 313.8N  \n\nC22         30 31 636.6F  \n\nR70         31 MID R_NOISELESS 2.5 \n\nR67         31 30 R_NOISELESS 10K \n\nR66         30 MID R_NOISELESS 1 \n\nXU2         31 MID MID 32 VCCS_LIM_ZO_0\n\nGVCCS4      30 MID 29 MID  -4.3\n\nR65         29 MID R_NOISELESS 3.03K \n\nR64         29 28 R_NOISELESS 10K \n\nR63         28 MID R_NOISELESS 1 \n\nGVCCS3      28 MID CL_CLAMP 33  -90\n\nR62         32 MID R_NOISELESS 1 \n\nC29         34 MID 72F \n\nR78         MID 34 R_NOISELESS 1MEG \n\nGVCCS9      34 MID 35 MID  -1U\n\nXU5         36 MID MID CLAMP CRS MID VCCS_LIM_2_EN_0\n\nC28         38 MID 1P \n\nR77         39 38 R_NOISELESS 100 \n\nC27         40 MID 1P \n\nR76         41 40 R_NOISELESS 100 \n\nR75         MID 42 R_NOISELESS 1 \n\nGVCCS8      42 MID 43 MID  -1\n\nR74         44 MID R_NOISELESS 1 \n\nGVCCS7      44 MID 45 MID  -1\n\nXi_nn       ESDn MID FEMT_0\n\nXi_np       MID 37 FEMT_0\n\nXe_n        ESDp 37 VNSE_0\n\nC25         35 MID 72F \n\nR69         MID 35 R_NOISELESS 1MEG \n\nGVCCS6      35 MID VSENSE MID  -1U\n\nC20         CLAMP MID 13.5N \n\nR68         MID CLAMP R_NOISELESS 1MEG \n\nR44         MID 36 R_NOISELESS 1MEG \n\nXVCCS_LIM_1 46 27 MID 36 VCCS_LIM_1_0\n\nRdummy      MID 33 R_NOISELESS 25K \n\nRx          33 32 R_NOISELESS 250K \n\nR56         MID 47 R_NOISELESS 1K \n\nC15         47 48 1.592P \n\nR55         48 47 R_NOISELESS 100MEG \n\nGVCCS1      48 MID VCC_B MID  -100M\n\nR54         MID 48 R_NOISELESS 1 \n\nR49         MID 49 R_NOISELESS 4.616K \n\nC14         49 50 26.53P \n\nR48         50 49 R_NOISELESS 100MEG \n\nG_adjust    50 MID ESDp MID  -685.2M\n\nRsrc        MID 50 R_NOISELESS 1 \n\nXIQPos      VIMON MID MID VCC VCCS_LIMIT_IQ_0\n\nXIQNeg      MID VIMON VEE MID VCCS_LIMIT_IQ_0\n\nC_DIFF      ESDp ESDn 1P \n\nXCL_AMP     51 52 VIMON MID 53 54 CLAMP_AMP_LO_0\n\nSOR_SWp     CLAMP 55 CLAMP 55  S_VSWITCH_1\n\nSOR_SWn     56 CLAMP 56 CLAMP  S_VSWITCH_2\n\nXGR_AMP     57 58 59 MID 60 61 CLAMP_AMP_HI_0\n\nR39         57 MID R_NOISELESS 1T \n\nR37         58 MID R_NOISELESS 1T \n\nR42         VSENSE 59 R_NOISELESS 1M \n\nC19         59 MID 1F \n\nR38         60 MID R_NOISELESS 1 \n\nR36         MID 61 R_NOISELESS 1 \n\nR40         60 62 R_NOISELESS 1M \n\nR41         61 63 R_NOISELESS 1M \n\nC17         62 MID 1F \n\nC18         MID 63 1F \n\nXGR_SRC     62 63 CLAMP MID VCCS_LIM_GR_0\n\nR21         53 MID R_NOISELESS 1 \n\nR20         MID 54 R_NOISELESS 1 \n\nR29         53 64 R_NOISELESS 1M \n\nR30         54 65 R_NOISELESS 1M \n\nC9          64 MID 1F \n\nC8          MID 65 1F \n\nXCL_SRC     64 65 CL_CLAMP MID VCCS_LIM_4_0\n\nR22         51 MID R_NOISELESS 1T \n\nR19         MID 52 R_NOISELESS 1T \n\nXCLAWp      VIMON MID 66 VCC_B VCCS_LIM_CLAW+_0\n\nXCLAWn      MID VIMON VEE_B 67 VCCS_LIM_CLAW-_0\n\nR12         66 VCC_B R_NOISELESS 1K \n\nR16         66 68 R_NOISELESS 1M \n\nR13         VEE_B 67 R_NOISELESS 1K \n\nR17         69 67 R_NOISELESS 1M \n\nC6          69 MID 1F \n\nC5          MID 68 1F \n\nG2          VCC_CLP MID 68 MID  -1M\n\nR15         VCC_CLP MID R_NOISELESS 1K \n\nG3          VEE_CLP MID 69 MID  -1M\n\nR14         MID VEE_CLP R_NOISELESS 1K \n\nXCLAW_AMP   VCC_CLP VEE_CLP VOUT_S MID 70 71 CLAMP_AMP_LO_0\n\nR26         VCC_CLP MID R_NOISELESS 1T \n\nR23         VEE_CLP MID R_NOISELESS 1T \n\nR25         70 MID R_NOISELESS 1 \n\nR24         MID 71 R_NOISELESS 1 \n\nR27         70 72 R_NOISELESS 1M \n\nR28         71 73 R_NOISELESS 1M \n\nC11         72 MID 1F \n\nC10         MID 73 1F \n\nXCLAW_SRC   72 73 CLAW_CLAMP MID VCCS_LIM_3_0\n\nH2          41 MID V11 -1\n\nH3          39 MID V12 1\n\nC12         SW_OL MID 100P \n\nR32         74 SW_OL R_NOISELESS 100 \n\nR31         74 MID R_NOISELESS 1 \n\nXOL_SENSE   MID 74 40 38 OL_SENSE_0\n\nS1          28 29 SW_OL MID  S_VSWITCH_3\n\nH1          75 MID V4 1K\n\nS7          VEE OUT VEE OUT  S_VSWITCH_4\n\nS6          OUT VCC OUT VCC  S_VSWITCH_5\n\nR11         MID 76 R_NOISELESS 1T \n\nR18         76 VOUT_S R_NOISELESS 100 \n\nC7          VOUT_S MID 10P \n\nE5          76 MID OUT MID  1\n\nC13         VIMON MID 10P \n\nR33         75 VIMON R_NOISELESS 100 \n\nR10         MID 75 R_NOISELESS 1T \n\nR47         77 VCLP R_NOISELESS 100 \n\nC24         VCLP MID 100P \n\nE4          77 MID CL_CLAMP MID  1\n\nR46         MID CL_CLAMP R_NOISELESS 1K \n\nG9          CL_CLAMP MID CLAW_CLAMP MID  -1M\n\nR45         MID CLAW_CLAMP R_NOISELESS 1K \n\nG8          CLAW_CLAMP MID 34 MID  -1M\n\nR43         MID VSENSE R_NOISELESS 1K \n\nG15         VSENSE MID CLAMP MID  -1M\n\nC4          46 MID 1F \n\nR9          46 78 R_NOISELESS 1M \n\nR7          MID 79 R_NOISELESS 1T \n\nR6          80 MID R_NOISELESS 1T \n\nR8          MID 78 R_NOISELESS 1 \n\nXVCM_CLAMP  26 MID 78 MID 80 79 VCCS_EXT_LIM_0\n\nE1          MID 0 81 0  1\n\nR89         VEE_B 0 R_NOISELESS 1 \n\nR5          82 VEE_B R_NOISELESS 1M \n\nC3          82 0 1F \n\nR60         81 82 R_NOISELESS 1MEG \n\nC1          81 0 1 \n\nR3          81 0 R_NOISELESS 1T \n\nR59         83 81 R_NOISELESS 1MEG \n\nC2          83 0 1F \n\nR4          VCC_B 83 R_NOISELESS 1M \n\nR88         VCC_B 0 R_NOISELESS 1 \n\nG17         VEE_B 0 VEE 0  -1\n\nG16         VCC_B 0 VCC 0  -1\n\nR_PSR       84 24 R_NOISELESS 1K \n\nG_PSR       24 84 47 22  -1M\n\nR2          25 ESDn R_NOISELESS 1M \n\nR1          84 85 R_NOISELESS 1M \n\nR_CMR       86 85 R_NOISELESS 1K \n\nG_CMR       85 86 49 MID  -1M\n\nC_CMn       ESDn MID 2P \n\nC_CMp       MID ESDp 2P \n\nR53         ESDn MID R_NOISELESS 1T \n\nR52         MID ESDp R_NOISELESS 1T \n\nR35         IN- ESDn R_NOISELESS 10M \n\nR34         IN+ ESDp R_NOISELESS 10M \n\n\n.MODEL S_VSWITCH_1 VSWITCH (RON=10M ROFF=1T VON=10M VOFF=0)\n\n.MODEL S_VSWITCH_2 VSWITCH (RON=10M ROFF=1T VON=10M VOFF=0)\n\n.MODEL S_VSWITCH_3 VSWITCH (RON=1M ROFF=1T VON=500M VOFF=100M)\n\n.MODEL S_VSWITCH_4 VSWITCH (RON=50 ROFF=1T VON=500M VOFF=450M)\n\n.MODEL S_VSWITCH_5 VSWITCH (RON=50 ROFF=1T VON=500M VOFF=450M)\n\n\n.ENDS LMX58_LM2904\n\n*\n\n.SUBCKT PHASEREV_0  VCC VEE VIN+ VIN- VOUT+ VOUT- MID\n\nE1 VOUT+ MID VALUE={IF(V(VIN+,MID)<V(VEE,MID)-0.3,V(VCC,MID),V(VIN+,MID))}\n\nE2 VOUT- MID VALUE={IF(V(VIN-,MID)<V(VEE,MID)-0.3,V(VCC,MID),V(VIN-,MID))}\n\n.ENDS\n\n*\n\n\n\n\n.SUBCKT CRS_DIST_0  VIMON MID OUT\n\nV1 VREF MID -40M\n\nESHF VSHF MID VIMON VREF 1\n\nGZC MID ZC VALUE = {SGN(V(VSHF,MID))}\n\nR1 ZC MID 1\n\nC1 ZC MID 2U\n\nGCR MID OUT VALUE = {IF((ABS(V(ZC,MID))<=0.9),0,1)}\n\nR2 OUT MID 1\n\n.ENDS\n\n*\n\n\n\n\n.SUBCKT VCCS_LIM_ZO_0  VC+ VC- IOUT+ IOUT-\n\n.PARAM GAIN = 4E3\n\n.PARAM IPOS = 1E6\n\n.PARAM INEG = -1E6\n\nG1 IOUT+ IOUT- VALUE={LIMIT(GAIN*V(VC+,VC-),INEG,IPOS)}\n\n.ENDS\n\n*\n\n\n\n\n.SUBCKT VCCS_LIM_2_EN_0  VC+ VC- IOUT+ IOUT- EN MID\n\n.PARAM GAIN = 8.4E-4\n\n.PARAM IPOS = 0.005\n\n.PARAM INEG = -0.005\n\nG1 IOUT+ IOUT- VALUE={LIMIT(GAIN*V(EN,MID)*V(VC+,VC-),INEG,IPOS)}\n\n.ENDS\n\n*\n\n\n\n\n.SUBCKT FEMT_0  1 2\n\n.PARAM FLWF=1E-3\n\n.PARAM NLFF=500\n\n.PARAM NVRF=500\n\n.PARAM GLFF={PWR(FLWF,0.25)*NLFF/1164}\n\n.PARAM RNVF={1.184*PWR(NVRF,2)}\n\n.MODEL DVNF D KF={PWR(FLWF,0.5)/1E11} IS=1.0E-16\n\nI1 0 7 10E-3\n\nI2 0 8 10E-3\n\nD1 7 0 DVNF\n\nD2 8 0 DVNF\n\nE1 3 6 7 8 {GLFF}\n\nR1 3 0 1E9\n\nR2 3 0 1E9\n\nR3 3 6 1E9\n\nE2 6 4 5 0 10\n\nR4 5 0 {RNVF}\n\nR5 5 0 {RNVF}\n\nR6 3 4 1E9\n\nR7 4 0 1E9\n\nG1 1 2 3 4 1E-6\n\n.ENDS\n\n*\n\n\n\n\n.SUBCKT VNSE_0  1 2\n\n.PARAM FLW=10\n\n.PARAM NLF=80\n\n.PARAM NVR=35\n\n.PARAM GLF={PWR(FLW,0.25)*NLF/1164}\n\n.PARAM RNV={1.184*PWR(NVR,2)}\n\n.MODEL DVN D KF={PWR(FLW,0.5)/1E11} IS=1.0E-16\n\nI1 0 7 10E-3\n\nI2 0 8 10E-3\n\nD1 7 0 DVN\n\nD2 8 0 DVN\n\nE1 3 6 7 8 {GLF}\n\nR1 3 0 1E9\n\nR2 3 0 1E9\n\nR3 3 6 1E9\n\nE2 6 4 5 0 10\n\nR4 5 0 {RNV}\n\nR5 5 0 {RNV}\n\nR6 3 4 1E9\n\nR7 4 0 1E9\n\nE3 1 2 3 4 1\n\n.ENDS\n\n*\n\n\n\n\n.SUBCKT VCCS_LIM_1_0  VC+ VC- IOUT+ IOUT-\n\n.PARAM GAIN = 1E-4\n\n.PARAM IPOS = .5\n\n.PARAM INEG = -.5\n\nG1 IOUT+ IOUT- VALUE={LIMIT(GAIN*V(VC+,VC-),INEG,IPOS)}\n\n.ENDS\n\n*\n\n\n\n\n.SUBCKT VCCS_LIMIT_IQ_0  VC+ VC- IOUT+ IOUT-\n\n.PARAM GAIN = 1E-3\n\nG1 IOUT- IOUT+ VALUE={IF( (V(VC+,VC-)<=0),0,GAIN*V(VC+,VC-) )}\n\n.ENDS\n\n*\n\n\n\n\n.SUBCKT CLAMP_AMP_LO_0  VC+ VC- VIN COM VO+ VO-\n\n.PARAM G=1\n\nGVO+ COM VO+ VALUE = {IF(V(VIN,COM)>V(VC+,COM),((V(VIN,COM)-V(VC+,COM))*G),0)}\n\nGVO- COM VO- VALUE = {IF(V(VIN,COM)<V(VC-,COM),((V(VC-,COM)-V(VIN,COM))*G),0)}\n\n.ENDS\n\n*\n\n\n\n\n.SUBCKT CLAMP_AMP_HI_0  VC+ VC- VIN COM VO+ VO-\n\n.PARAM G=10\n\nGVO+ COM VO+ VALUE = {IF(V(VIN,COM)>V(VC+,COM),((V(VIN,COM)-V(VC+,COM))*G),0)}\n\nGVO- COM VO- VALUE = {IF(V(VIN,COM)<V(VC-,COM),((V(VC-,COM)-V(VIN,COM))*G),0)}\n\n.ENDS\n\n*\n\n\n\n\n.SUBCKT VCCS_LIM_GR_0  VC+ VC- IOUT+ IOUT-\n\n.PARAM GAIN = 1\n\n.PARAM IPOS = 0.013\n\n.PARAM INEG = -0.013\n\nG1 IOUT+ IOUT- VALUE={LIMIT(GAIN*V(VC+,VC-),INEG,IPOS)}\n\n.ENDS\n\n*\n\n\n\n\n.SUBCKT VCCS_LIM_4_0  VC+ VC- IOUT+ IOUT-\n\n.PARAM GAIN = 1\n\n.PARAM IPOS = 1.04\n\n.PARAM INEG = -1.04\n\nG1 IOUT+ IOUT- VALUE={LIMIT(GAIN*V(VC+,VC-),INEG,IPOS)}\n\n.ENDS\n\n*\n\n\n\n\n.SUBCKT VCCS_LIM_CLAW+_0  VC+ VC- IOUT+ IOUT-\n\nG1 IOUT+ IOUT- TABLE {ABS(V(VC+,VC-))} =\n\n+(0, 1.17E-03)\n\n+(0.0046251, 1.17E-3)\n\n+(0.15716, 1.21E-3)\n\n+(1.3309, 1.28E-3)\n\n+(35.075, 2.12E-3)\n\n+(35.680, 2.55E-3)\n\n+(36.033, 2.84E-3)\n\n+(37.416, 7.97E-3)\n\n.ENDS\n\n*\n\n\n\n\n.SUBCKT VCCS_LIM_CLAW-_0  VC+ VC- IOUT+ IOUT-\n\nG1 IOUT+ IOUT- TABLE {ABS(V(VC+,VC-))} =\n\n+(0.010, 2.50E-5)\n\n+(0.070, 2.50E-5)\n\n+(0.090, 5.80E-4)\n\n+(0.100, 6.06E-4)\n\n+(0.760, 7.14E-4) \n\n+(1.440, 7.62E-4)\n\n+(8.000, 1.10E-3)\n\n+(13.60, 1.55E-3)\n\n+(15.45, 1.75E-3)\n\n+(17.26, 2.15E-3)\n\n+(18.87, 2.94E-3)\n\n+(21.58, 4.50E-3)\n\n+(25.53, 1.02E-2)\n\n.ENDS\n\n*\n\n\n\n\n\n.SUBCKT VCCS_LIM_3_0  VC+ VC- IOUT+ IOUT-\n\n.PARAM GAIN = 1\n\n.PARAM IPOS = 0.435\n\n.PARAM INEG = -0.435\n\nG1 IOUT+ IOUT- VALUE={LIMIT(GAIN*V(VC+,VC-),INEG,IPOS)}\n\n.ENDS\n\n*\n\n\n\n\n.SUBCKT OL_SENSE_0  COM SW+ OLN  OLP\n\nGSW+ COM SW+ VALUE = {IF((V(OLN,COM)>10E-3 | V(OLP,COM)>10E-3),1,0)}\n\n.ENDS\n\n*\n\n\n\n\n.SUBCKT VCCS_EXT_LIM_0  VIN+ VIN- IOUT- IOUT+ VP+ VP-\n\n.PARAM GAIN = 1\n\nG1 IOUT+ IOUT- VALUE={LIMIT(GAIN*V(VIN+,VIN-),V(VP-,VIN-), V(VP+,VIN-))}\n\n.ENDS\n\n*
TEXT 88 480 Left 2 ;This takes a while to simulate due to using the op amp model to the left.
TEXT 24 -232 Left 2 ;This doesn't have 6dB attenuation (cutting the voltage in half).  It looks more like 10 dB.
